Version 4
SHEET 1 880 752
WIRE 64 -32 -144 -32
WIRE 160 -32 64 -32
WIRE 528 -32 160 -32
WIRE -608 -16 -704 -16
WIRE -544 -16 -608 -16
WIRE -432 -16 -544 -16
WIRE -704 0 -704 -16
WIRE 672 16 464 16
WIRE -32 32 -144 32
WIRE 64 32 64 -32
WIRE 64 32 -32 32
WIRE 64 48 64 32
WIRE -544 80 -544 -16
WIRE -432 80 -544 80
WIRE -32 96 -144 96
WIRE 304 96 288 96
WIRE 352 96 304 96
WIRE 464 96 432 96
WIRE 528 112 528 -32
WIRE 464 128 464 96
WIRE 496 128 464 128
WIRE 208 144 208 96
WIRE 672 144 672 16
WIRE 672 144 560 144
WIRE 496 160 464 160
WIRE -704 176 -704 80
WIRE -608 208 -608 48
WIRE -288 208 -288 144
WIRE -288 208 -608 208
WIRE 64 208 64 112
WIRE 64 208 -288 208
WIRE 160 208 160 -32
WIRE 304 208 304 176
WIRE 304 208 160 208
WIRE 352 208 304 208
WIRE 464 208 464 160
WIRE 464 208 432 208
WIRE 464 224 464 208
WIRE -288 304 -288 208
WIRE 464 352 464 304
FLAG -288 304 0
FLAG -704 176 0
FLAG 528 176 0
FLAG 464 352 0
FLAG 208 144 0
SYMBOL Opamps\\LT1498 528 80 R0
SYMATTR InstName U2
SYMBOL PowerProducts\\LT1762-3.3 -288 32 R0
SYMATTR InstName U3
SYMBOL cap -48 32 R0
SYMATTR InstName C1
SYMATTR Value 0.01µ
SYMATTR SpiceLine V=6.3
SYMBOL cap 48 48 R0
SYMATTR InstName C2
SYMATTR Value 10µ
SYMBOL voltage -704 -16 R0
SYMATTR InstName V1
SYMBOL cap -624 -16 R0
SYMATTR InstName C3
SYMATTR Value 1µ
SYMBOL res 448 0 R0
SYMATTR InstName R1
SYMATTR Value 6800
SYMBOL res 448 208 R0
SYMATTR InstName R2
SYMBOL res 448 80 R90
WINDOW 0 0 56 VBottom 2
WINDOW 3 32 59 VTop 2
SYMATTR InstName 1000
SYMBOL res 448 192 R90
WINDOW 0 0 56 VBottom 2
WINDOW 3 32 56 VTop 2
SYMATTR InstName R4
SYMBOL res 304 80 R90
WINDOW 0 0 56 VBottom 2
WINDOW 3 32 56 VTop 2
SYMATTR InstName R6
SYMATTR Value 10k
SYMBOL res 288 80 R0
SYMATTR InstName R5
SYMATTR Value 10k
