Version 4
SHEET 1 880 680
WIRE 304 48 80 48
WIRE 304 64 304 48
WIRE 80 80 80 48
WIRE 304 80 304 64
WIRE 80 192 80 160
WIRE 224 192 80 192
WIRE 304 192 304 144
WIRE 304 192 224 192
WIRE 224 208 224 192
FLAG 224 208 0
SYMBOL voltage 80 64 R0
WINDOW 123 0 0 Left 0
WINDOW 39 0 0 Left 0
SYMATTR InstName V1
SYMATTR Value SINE(0 20 50 0 0 0)
SYMBOL ind 288 48 R0
SYMATTR InstName L1
SYMATTR Value 10m
SYMATTR SpiceLine Rser=1
TEXT 46 232 Left 2 !.tran .2
TEXT 56 264 Left 2 !.step param C list .01 .001 .0001
